Version 4
SHEET 1 1024 1284
WIRE -112 -384 -544 -384
WIRE -112 -240 -112 -384
WIRE -544 -128 -544 -384
WIRE -112 -128 -112 -160
WIRE 16 -128 -112 -128
WIRE -112 -96 -112 -128
WIRE -176 -48 -352 -48
WIRE -352 -16 -352 -48
WIRE -544 112 -544 -48
WIRE -352 112 -352 64
WIRE -112 112 -112 0
WIRE -128 336 -560 336
WIRE -128 480 -128 336
WIRE -560 592 -560 336
WIRE -128 592 -128 560
WIRE 0 592 -128 592
WIRE -128 624 -128 592
WIRE -192 672 -368 672
WIRE -368 704 -368 672
WIRE 656 736 224 736
WIRE -128 752 -128 720
WIRE -560 832 -560 672
WIRE -368 832 -368 784
WIRE -128 864 -128 832
WIRE 224 992 224 736
WIRE 656 1024 656 736
WIRE 592 1072 416 1072
WIRE 416 1104 416 1072
WIRE 656 1136 656 1120
WIRE 784 1136 656 1136
WIRE 656 1152 656 1136
WIRE 224 1232 224 1072
WIRE 416 1232 416 1184
WIRE 656 1264 656 1232
FLAG -112 112 0
FLAG -352 112 0
FLAG -544 112 0
FLAG 16 -128 Vout1
FLAG -368 832 0
FLAG -560 832 0
FLAG 0 592 Vout2
FLAG -128 864 0
FLAG 416 1232 0
FLAG 224 1232 0
FLAG 656 1264 0
FLAG 784 1136 Vout3
SYMBOL npn -176 -96 R0
SYMATTR InstName Q1
SYMATTR Value MPS650
SYMBOL res -128 -256 R0
SYMATTR InstName R1
SYMATTR Value 386
SYMBOL voltage -352 -32 R0
WINDOW 123 0 0 Left 2
WINDOW 39 0 0 Left 2
SYMATTR InstName V1
SYMATTR Value 623.41429E-3
SYMBOL voltage -544 -144 R0
WINDOW 123 0 0 Left 2
WINDOW 39 0 0 Left 2
SYMATTR InstName V2
SYMATTR Value 8
SYMBOL npn -192 624 R0
SYMATTR InstName Q2
SYMATTR Value MPS650
SYMBOL res -144 464 R0
SYMATTR InstName R2
SYMATTR Value 485
SYMBOL voltage -368 688 R0
WINDOW 123 0 0 Left 2
WINDOW 39 0 0 Left 2
SYMATTR InstName V3
SYMATTR Value 623.41429E-3
SYMBOL voltage -560 576 R0
WINDOW 123 0 0 Left 2
WINDOW 39 0 0 Left 2
SYMATTR InstName V4
SYMATTR Value 10
SYMBOL voltage -128 736 R0
WINDOW 123 0 0 Left 2
WINDOW 39 0 0 Left 2
SYMATTR InstName V5
SYMATTR Value 0.025
SYMBOL npn 592 1024 R0
SYMATTR InstName Q3
SYMATTR Value MPS650
SYMBOL voltage 416 1088 R0
WINDOW 123 0 0 Left 2
WINDOW 39 0 0 Left 2
SYMATTR InstName V6
SYMATTR Value 5.5722543
SYMBOL voltage 224 976 R0
WINDOW 123 0 0 Left 2
WINDOW 39 0 0 Left 2
SYMATTR InstName V7
SYMATTR Value 10
SYMBOL res 640 1136 R0
SYMATTR InstName R4
SYMATTR Value 500
TEXT 232 160 Left 2 !.MODEL MPS650  NPN (\n+ IS=328.81E-15  BF=192.66  VAF=100  IKF=7.2205  ISE=328.81E-15\n+ NE=1.5777  BR=48.090  VAR=100  IKR=.44433 ISC=272.04E-12\n+ NC=1.6969  NK=.78896  RB=.51504  RC=98.729E-3  CJE=330.76E-12\n+ VJE=.77891  MJE=.36425  CJC=57.312E-12 VJC=.49887  MJC=.40654\n+ TF=641.04E-12  XTF=6.2332  VTF=10.091  ITF=1.8997  TR=10.000E-9)
TEXT 216 -248 Left 2 !.tf V(Vout1) V1
