Version 4
SHEET 1 2372 824
WIRE 768 -160 720 -160
WIRE 880 -160 832 -160
WIRE 208 -112 48 -112
WIRE 720 -112 720 -160
WIRE 720 -112 208 -112
WIRE 752 -112 720 -112
WIRE 880 -112 880 -160
WIRE 880 -112 848 -112
WIRE 944 -112 880 -112
WIRE 1040 -112 944 -112
WIRE 1120 -112 1040 -112
WIRE 48 -80 48 -112
WIRE 1120 -80 1120 -112
WIRE 832 -48 832 -64
WIRE 1824 -48 1600 -48
WIRE 2144 -48 2080 -48
WIRE 448 -16 352 -16
WIRE 608 -16 528 -16
WIRE 752 -16 672 -16
WIRE 2144 16 2144 -48
WIRE 2144 16 2080 16
WIRE 2224 16 2144 16
WIRE 688 32 432 32
WIRE 48 48 48 0
WIRE 208 48 208 -32
WIRE 224 48 208 48
WIRE 352 48 352 -16
WIRE 352 48 304 48
WIRE 400 48 352 48
WIRE 752 48 752 -16
WIRE 832 48 832 32
WIRE 832 48 752 48
WIRE 832 64 832 48
WIRE 832 64 464 64
WIRE 1120 64 1120 0
WIRE 1120 64 1104 64
WIRE 400 80 368 80
WIRE 1824 80 1792 80
WIRE 2144 80 2144 16
WIRE 2144 80 2080 80
WIRE 688 96 688 32
WIRE 944 96 944 -112
WIRE 944 96 688 96
WIRE 1600 96 1600 32
WIRE 208 112 208 48
WIRE 368 128 368 80
WIRE 592 128 368 128
WIRE 944 128 944 96
WIRE 944 128 672 128
WIRE 1792 176 1792 80
WIRE 1952 176 1952 128
WIRE 1952 176 1792 176
WIRE 2224 272 2224 16
WIRE 2304 272 2224 272
WIRE 2304 320 2304 272
WIRE 736 432 688 432
WIRE 880 432 800 432
WIRE 2304 448 2304 400
WIRE 208 480 64 480
WIRE 688 480 688 432
WIRE 688 480 208 480
WIRE 720 480 688 480
WIRE 880 480 880 432
WIRE 880 480 816 480
WIRE 1040 480 1040 -112
WIRE 1040 480 880 480
WIRE 1824 512 1600 512
WIRE 2144 512 2080 512
WIRE 64 528 64 480
WIRE 1600 528 1600 512
WIRE 800 544 800 528
WIRE 432 576 336 576
WIRE 592 576 512 576
WIRE 720 576 656 576
WIRE 2144 576 2144 512
WIRE 2144 576 2080 576
WIRE 2224 576 2224 272
WIRE 2224 576 2144 576
WIRE 208 624 208 560
WIRE 224 624 208 624
WIRE 336 624 336 576
WIRE 336 624 304 624
WIRE 640 624 416 624
WIRE 64 640 64 608
WIRE 336 640 336 624
WIRE 384 640 336 640
WIRE 720 640 720 576
WIRE 800 640 800 624
WIRE 800 640 720 640
WIRE 1600 640 1600 608
WIRE 1824 640 1776 640
WIRE 2144 640 2144 576
WIRE 2144 640 2080 640
WIRE 800 656 800 640
WIRE 800 656 448 656
WIRE 208 672 208 624
WIRE 384 672 352 672
WIRE 640 688 640 624
WIRE 880 688 880 480
WIRE 880 688 640 688
WIRE 416 704 416 688
WIRE 1776 720 1776 640
WIRE 1952 720 1952 688
WIRE 1952 720 1776 720
WIRE 352 736 352 672
WIRE 560 736 352 736
WIRE 880 736 880 688
WIRE 880 736 640 736
WIRE 208 784 208 752
FLAG 48 48 0
FLAG 64 640 0
FLAG 208 784 0
FLAG 416 704 0
FLAG 432 96 0
FLAG 1120 64 0
FLAG 208 192 0
FLAG 1600 96 0
FLAG 1600 640 0
FLAG 2304 448 0
SYMBOL voltage 64 512 R0
WINDOW 123 0 0 Left 2
WINDOW 39 0 0 Left 2
SYMATTR InstName V1
SYMATTR Value 5
SYMBOL voltage 48 -96 R0
WINDOW 123 0 0 Left 2
WINDOW 39 0 0 Left 2
SYMATTR InstName V2
SYMATTR Value 0
SYMBOL pmos 752 -64 R270
SYMATTR InstName M1
SYMATTR Value SI4467DY
SYMBOL pmos 720 528 R270
SYMATTR InstName M2
SYMATTR Value SI4467DY
SYMBOL res 192 -128 R0
SYMATTR InstName R1
SYMATTR Value 1k
SYMBOL res 192 96 R0
SYMATTR InstName R2
SYMATTR Value 1E6
SYMBOL res 320 32 R90
WINDOW 0 0 56 VBottom 2
WINDOW 3 32 56 VTop 2
SYMATTR InstName R3
SYMATTR Value 47k
SYMBOL res 544 -32 R90
WINDOW 0 0 56 VBottom 2
WINDOW 3 32 56 VTop 2
SYMATTR InstName R4
SYMATTR Value 10k
SYMBOL cap 672 -32 R90
WINDOW 0 0 32 VBottom 2
WINDOW 3 32 32 VTop 2
SYMATTR InstName C1
SYMATTR Value 3.3nF
SYMBOL res 192 464 R0
SYMATTR InstName R5
SYMATTR Value 1K
SYMBOL res 192 656 R0
SYMATTR InstName R6
SYMATTR Value 1E6
SYMBOL res 320 608 R90
WINDOW 0 0 56 VBottom 2
WINDOW 3 32 56 VTop 2
SYMATTR InstName R7
SYMATTR Value 47K
SYMBOL res 528 560 R90
WINDOW 0 0 56 VBottom 2
WINDOW 3 32 56 VTop 2
SYMATTR InstName R8
SYMATTR Value 10k
SYMBOL cap 656 560 R90
WINDOW 0 0 32 VBottom 2
WINDOW 3 32 32 VTop 2
SYMATTR InstName C2
SYMATTR Value 3.3nF
SYMBOL res 816 -64 R0
SYMATTR InstName R9
SYMATTR Value 1k
SYMBOL res 784 528 R0
SYMATTR InstName R10
SYMATTR Value 1K
SYMBOL Comparators\\LT1018 416 656 R0
SYMATTR InstName U1
SYMBOL Comparators\\LT1018 432 64 R0
SYMATTR InstName U2
SYMBOL res 656 720 R90
WINDOW 0 0 56 VBottom 2
WINDOW 3 32 56 VTop 2
SYMATTR InstName R11
SYMATTR Value 47k
SYMBOL res 688 112 R90
WINDOW 0 0 56 VBottom 2
WINDOW 3 32 56 VTop 2
SYMATTR InstName R12
SYMATTR Value 47k
SYMBOL res 1104 -96 R0
SYMATTR InstName R13
SYMATTR Value 10
SYMBOL schottky 736 448 R270
WINDOW 0 32 32 VTop 2
WINDOW 3 0 32 VBottom 2
SYMATTR InstName D1
SYMBOL schottky 768 -144 R270
WINDOW 0 32 32 VTop 2
WINDOW 3 0 32 VBottom 2
SYMATTR InstName D2
SYMBOL SpecialFunctions\\LTC4358 1952 16 R0
SYMATTR InstName U3
SYMBOL SpecialFunctions\\LTC4358 1952 576 R0
SYMATTR InstName U4
SYMBOL voltage 1600 -64 R0
WINDOW 123 0 0 Left 2
WINDOW 39 0 0 Left 2
SYMATTR InstName V3
SYMATTR Value 0
SYMBOL voltage 1600 512 R0
WINDOW 123 0 0 Left 2
WINDOW 39 0 0 Left 2
SYMATTR InstName V4
SYMATTR Value 5
SYMBOL res 2288 304 R0
SYMATTR InstName R14
SYMATTR Value 10
TEXT 14 808 Left 2 !.tran 0 1E-3 0
