Version 4
SHEET 1 1184 680
WIRE -128 -112 -192 -112
WIRE 256 -112 128 -112
WIRE -320 0 -480 0
WIRE -240 0 -320 0
WIRE -192 0 -192 -112
WIRE -192 0 -240 0
WIRE -128 0 -192 0
WIRE 256 0 256 -112
WIRE 256 0 128 0
WIRE 320 0 256 0
WIRE 736 0 320 0
WIRE 1120 0 736 0
WIRE -480 32 -480 0
WIRE -320 80 -320 64
WIRE 0 80 0 48
WIRE 0 80 -320 80
WIRE 256 80 256 64
WIRE 256 80 0 80
WIRE 0 112 0 80
WIRE 736 128 736 0
WIRE 736 128 704 128
WIRE 704 160 704 128
WIRE -480 176 -480 112
WIRE 704 272 704 240
WIRE 736 288 672 288
WIRE 656 336 480 336
WIRE 1120 336 1120 0
WIRE 1120 336 752 336
WIRE 480 352 480 336
WIRE 1120 368 1120 336
WIRE 480 480 480 432
WIRE 1120 480 1120 448
FLAG 320 0 Vout
FLAG -240 0 Vin
FLAG -480 176 0
FLAG 0 112 0
FLAG 480 480 0
FLAG 1120 480 0
SYMBOL cap -336 0 R0
SYMATTR InstName C1
SYMATTR Value 1µF
SYMBOL cap 240 0 R0
SYMATTR InstName C2
SYMATTR Value 10µF
SYMBOL voltage -480 16 R0
WINDOW 3 24 44 Left 2
WINDOW 123 0 0 Left 2
WINDOW 39 0 0 Left 2
SYMATTR InstName V1
SYMATTR Value 0
SYMBOL PowerProducts\\LT1118-5 0 -48 R0
SYMATTR InstName U1
SYMBOL voltage 480 336 R0
WINDOW 123 0 0 Left 2
WINDOW 39 0 0 Left 2
SYMATTR InstName V2
SYMATTR Value 5
SYMBOL res 1104 352 R0
SYMATTR InstName R1
SYMATTR Value 10
SYMBOL pnp 752 272 R90
SYMATTR InstName Q1
SYMBOL res 688 144 R0
SYMATTR InstName R2
SYMATTR Value 6.8k
TEXT -514 200 Left 2 !.tran 0 1E-3 0
