Version 4
SHEET 1 1712 680
WIRE 176 64 64 64
WIRE 352 64 272 64
WIRE 560 64 352 64
WIRE 608 64 560 64
WIRE 768 64 704 64
WIRE 224 112 192 112
WIRE 256 112 224 112
WIRE 560 112 560 64
WIRE 688 128 688 112
WIRE 688 128 656 128
WIRE 64 160 64 64
WIRE 768 192 768 64
WIRE 352 208 352 64
WIRE 448 256 416 256
WIRE 560 256 560 192
WIRE 560 256 528 256
WIRE 224 304 224 112
WIRE 352 304 224 304
WIRE 224 320 224 304
WIRE 560 320 560 256
WIRE 64 416 64 240
WIRE 224 416 224 400
WIRE 224 416 64 416
WIRE 496 416 224 416
WIRE 560 416 560 384
WIRE 560 416 496 416
WIRE 656 416 656 128
WIRE 656 416 560 416
WIRE 768 416 768 272
WIRE 768 416 656 416
WIRE 496 496 496 416
FLAG 496 496 0
SYMBOL pnp 416 304 R180
SYMATTR InstName FMMT718
SYMBOL res 208 304 R0
SYMATTR InstName R1
SYMATTR Value 6.8k
SYMBOL res 544 240 R90
WINDOW 0 0 56 VBottom 2
WINDOW 3 32 56 VTop 2
SYMATTR InstName R2
SYMATTR Value 6.8k
SYMBOL res 576 208 R180
WINDOW 0 36 76 Left 2
WINDOW 3 36 40 Left 2
SYMATTR InstName R3
SYMATTR Value 2.7k
SYMBOL schottky 576 384 R180
WINDOW 0 24 64 Left 2
WINDOW 3 24 0 Left 2
SYMATTR InstName D1
SYMBOL voltage 768 176 R0
WINDOW 123 0 0 Left 2
WINDOW 39 0 0 Left 2
SYMATTR InstName V1
SYMATTR Value 5
SYMBOL res 48 144 R0
SYMATTR InstName R4
SYMATTR Value 10
SYMBOL pmos 272 112 M270
SYMATTR InstName M1
SYMATTR Value FDS4435A
SYMBOL pmos 608 112 R270
SYMATTR InstName M2
SYMATTR Value FDS4435A
TEXT 32 424 Left 2 !.tran 0 100E-3 0 1E-6
TEXT 104 -24 Left 2 !;op
TEXT 984 168 Left 2 !.MODEL FMMT718 PNP IS =6.8E-13  BF =480 IKF =2 VAF =23 \n    +              ISE=0.8E-13 NE =1.5567 NR =1.00 BR =70 IKR=0.4 \n    +              VAR=7 ISC=7.5E-14 NC =1.19 RB =0.085 RE =0.04\n    +              RC =0.045 CJC=70.02E-12 MJC=0.4685 VJC=0.7714 \n    +              CJE=203.6E-12 MJE=0.5029 VJE=0.9403 TF =0.71E-9 \n    +              TR =23.7E-9
